
     RDKit          3D

  9  8  0  0  0  0  0  0  0  0999 V2000
   -0.9254    0.0742    0.0328 C   0  0  0  0  0  0  0  0  0  0  0  0
    0.5123   -0.4192   -0.0743 C   0  0  0  0  0  0  0  0  0  0  0  0
    1.3778    0.4494    0.6044 O   0  0  0  0  0  0  0  0  0  0  0  0
   -1.0225    1.0731   -0.4429 H   0  0  0  0  0  0  0  0  0  0  0  0
   -1.6044   -0.6368   -0.4832 H   0  0  0  0  0  0  0  0  0  0  0  0
   -1.2236    0.1472    1.1002 H   0  0  0  0  0  0  0  0  0  0  0  0
    0.8058   -0.5060   -1.1451 H   0  0  0  0  0  0  0  0  0  0  0  0
    0.5852   -1.4274    0.3853 H   0  0  0  0  0  0  0  0  0  0  0  0
    1.4948    1.2455    0.0227 H   0  0  0  0  0  0  0  0  0  0  0  0
  1  2  1  0
  2  3  1  0
  1  4  1  0
  1  5  1  0
  1  6  1  0
  2  7  1  0
  2  8  1  0
  3  9  1  0
M  END
